       2
 i =        1, E =        -1.1331112110
  H         0.0000000000        0.0000000000        0.0000000000
  H        -0.0248870238        0.0000000000        0.0000000000
       2
 i =        2, E =        -1.1342048811
  H         0.0000000000        0.0000000000        0.0000000000
  H        -0.0007493171        0.0000000000        0.0000000000
       2
 i =        3, E =        -1.1342056908
  H         0.0000000000        0.0000000000        0.0000000000
  H         0.0001116143        0.0000000000        0.0000000000
       2
 i =        4, E =        -1.1342056907
  H         0.0000000000        0.0000000000        0.0000000000
  H         0.0001116143        0.0000000000        0.0000000000
