       2
 i =        1, E =        -1.1331112110
  H         4.0000000000        4.0000000000        4.0000000000
  H         4.8081979268        4.0000000000        4.0000000000
       2
 i =        2, E =        -1.1342048811
  H         4.0000000000        4.0000000000        4.0000000000
  H         4.7648949843        4.0000000000        4.0000000000
       2
 i =        3, E =        -1.1342056908
  H         4.0000000000        4.0000000000        4.0000000000
  H         4.7635507126        4.0000000000        4.0000000000
       2
 i =        4, E =        -1.1342056907
  H         4.0000000000        4.0000000000        4.0000000000
  H         4.7635507126        4.0000000000        4.0000000000
