       3
 i =        1, E =       -17.1640993833
  O         4.7833103750        4.8001859589        3.9999998907
  H         5.7571672771        4.7972301044        4.0000006210
  H         4.4543104025        5.7171315623        3.9999994883
       3
 i =        2, E =       -17.1643497505
  O         4.7806720680        4.7956154170        3.9999998865
  H         5.7537648865        4.8033239792        4.0000006972
  H         4.4613301118        5.7157576321        3.9999994278
       3
 i =        3, E =       -17.1645747272
  O         4.7662428269        4.7846120837        3.9999998514
  H         5.7494671020        4.8254847721        4.0000011864
  H         4.4869768540        5.7105358422        3.9999990479
       3
 i =        4, E =       -17.1646028416
  O         4.7728152496        4.7752968205        3.9999998756
  H         5.7409854170        4.8302580061        4.0000012599
  H         4.4906829634        5.7166169337        3.9999989774
       3
 i =        5, E =       -17.1647107450
  O         4.7718964286        4.7821082316        3.9999998743
  H         5.7459283046        4.8246485993        4.0000011568
  H         4.4851462784        5.7142234183        3.9999990643
       3
 i =        6, E =       -17.1647112777
  O         4.7720583200        4.7823994634        3.9999998814
  H         5.7461000189        4.8247699729        4.0000011576
  H         4.4852743321        5.7143218856        3.9999990639
       3
 i =        7, E =       -17.1647112776
  O         4.7720583200        4.7823994634        3.9999998814
  H         5.7461000189        4.8247699729        4.0000011576
  H         4.4852743321        5.7143218856        3.9999990639
