      49
 i =        1, E =     -5814.4599768487
 Pt         0.0000000000        0.0000000000        5.0000000000
 Pt         1.4060005200        2.4352643300        5.0000000000
 Pt         2.8120010300        0.0000000000        5.0000000000
 Pt         4.2180015500        2.4352643300        5.0000000000
 Pt         2.8120010300        4.8705286600        5.0000000000
 Pt         4.2180015500        7.3057929900        5.0000000000
 Pt         5.6240020700        4.8705286600        5.0000000000
 Pt         7.0300025900        7.3057929900        5.0000000000
 Pt         5.6240020700        0.0000000000        5.0000000000
 Pt         7.0300025900        2.4352643300        5.0000000000
 Pt         8.4360031000        0.0000000000        5.0000000000
 Pt         9.8420036200        2.4352643300        5.0000000000
 Pt         8.4360031000        4.8705286600        5.0000000000
 Pt         9.8420036200        7.3057929900        5.0000000000
 Pt        11.2480041400        4.8705286600        5.0000000000
 Pt        12.6540046500        7.3057929900        5.0000000000
 Pt         5.6049274238        3.2381287435        7.3089501229
 Pt         4.2118393440        0.8151210888        7.3377955046
 Pt         2.8145094764        3.2404629039        7.3352841701
 Pt         8.4341601923        8.1368822012        7.3067962989
 Pt         7.0207214139        5.6860941607        7.3070697113
 Pt         5.6277917156        8.1242221381        7.3174415990
 Pt        11.2688114264        3.2366931336        7.3022412723
 Pt         9.8504761020        0.8045557230        7.3172638800
 Pt         8.4332442724        3.2451928048        7.2997169174
 Pt        14.0576935581        8.1181267056        7.3082075048
 Pt        12.6593987014        5.6789414900        7.3119102052
 Pt        11.2470811506        8.1232268900        7.3138481117
 Pt         1.4117307969        0.8134109172        7.3364118335
 Pt         4.2156229641        5.6761882015        7.3139996258
 Pt         7.0228851936        0.8088101214        7.3167651890
 Pt         9.8487117765        5.6853545233        7.3015272168
 Pt         2.8120539060        1.6126607948        9.6904109148
 Pt         4.1967062855        4.0496768576        9.6694222042
 Pt         5.6071729770        1.5938024639        9.6651335641
 Pt         7.0264628257        4.0297228789        9.6275901032
 Pt         5.6021060594        6.5031628786        9.6227221256
 Pt         7.0182632841        8.9474650041        9.6757631225
 Pt         8.4373435312        6.5255116349        9.5984705177
 Pt         9.8524299677        8.9465540627        9.6765075328
 Pt         8.4348897650        1.6057274496        9.6417482713
 Pt         9.8454627724        4.0330572354        9.6221938065
 Pt        11.2722472460        1.5895417358        9.6655395675
 Pt        12.6784262964        4.0462339281        9.6687238173
 Pt        11.2737106053        6.5056307813        9.6161334850
 Pt        12.6576752952        8.9208389254        9.6412472414
 Pt        14.0605903111        6.4927880339        9.6451133315
 Pt        15.4648588337        8.9231377029        9.6440223376
  H         8.4340491041        3.2414768544       10.6933573716
      49
 i =        2, E =     -5814.4625901140
 Pt         0.0000000000        0.0000000000        5.0000000000
 Pt         1.4060005200        2.4352643300        5.0000000000
 Pt         2.8120010300        0.0000000000        5.0000000000
 Pt         4.2180015500        2.4352643300        5.0000000000
 Pt         2.8120010300        4.8705286600        5.0000000000
 Pt         4.2180015500        7.3057929900        5.0000000000
 Pt         5.6240020700        4.8705286600        5.0000000000
 Pt         7.0300025900        7.3057929900        5.0000000000
 Pt         5.6240020700        0.0000000000        5.0000000000
 Pt         7.0300025900        2.4352643300        5.0000000000
 Pt         8.4360031000        0.0000000000        5.0000000000
 Pt         9.8420036200        2.4352643300        5.0000000000
 Pt         8.4360031000        4.8705286600        5.0000000000
 Pt         9.8420036200        7.3057929900        5.0000000000
 Pt        11.2480041400        4.8705286600        5.0000000000
 Pt        12.6540046500        7.3057929900        5.0000000000
 Pt         5.6081456490        3.2421125397        7.3220890843
 Pt         4.2120439660        0.8132064046        7.3354986880
 Pt         2.8131915506        3.2412355328        7.3337687038
 Pt         8.4340582038        8.1368055825        7.3147105267
 Pt         7.0216745261        5.6813727164        7.3172556269
 Pt         5.6280783048        8.1231534342        7.3194012109
 Pt        11.2667898456        3.2395220923        7.3170624273
 Pt         9.8468311142        0.8066839676        7.3253190455
 Pt         8.4331115093        3.2448997389        7.3089319230
 Pt        14.0593243366        8.1163607635        7.3164379418
 Pt        12.6600588980        5.6769179517        7.3180883615
 Pt        11.2458139221        8.1233994159        7.3167688677
 Pt         1.4122141485        0.8127353928        7.3330620780
 Pt         4.2150880204        5.6756627908        7.3193597795
 Pt         7.0261072245        0.8097387879        7.3242101683
 Pt         9.8476871654        5.6808879780        7.3122958247
 Pt         2.8124031385        1.6141275113        9.6913818917
 Pt         4.2151388851        4.0495263092        9.6667003206
 Pt         5.6127737685        1.6062313081        9.6595575370
 Pt         7.0302479301        4.0423245203        9.6467221821
 Pt         5.6163684266        6.4955548917        9.6344519527
 Pt         7.0273819639        8.9326214420        9.6751289399
 Pt         8.4365821800        6.5126403593        9.6132525161
 Pt         9.8450208820        8.9333866005        9.6720502871
 Pt         8.4358743120        1.6072325877        9.6544003988
 Pt         9.8426590556        4.0448563647        9.6387154672
 Pt        11.2660656895        1.6035091460        9.6599135715
 Pt        12.6613570596        4.0456556037        9.6649651478
 Pt        11.2600076123        6.4971668800        9.6279819866
 Pt        12.6602900045        8.9243428828        9.6484015607
 Pt        14.0611537283        6.4934683888        9.6506176038
 Pt        15.4628130190        8.9254074499        9.6510156983
  H         8.4336116410        3.2431797360       10.6727285772
      49
 i =        3, E =     -5814.4638632844
 Pt         0.0000000000        0.0000000000        5.0000000000
 Pt         1.4060005200        2.4352643300        5.0000000000
 Pt         2.8120010300        0.0000000000        5.0000000000
 Pt         4.2180015500        2.4352643300        5.0000000000
 Pt         2.8120010300        4.8705286600        5.0000000000
 Pt         4.2180015500        7.3057929900        5.0000000000
 Pt         5.6240020700        4.8705286600        5.0000000000
 Pt         7.0300025900        7.3057929900        5.0000000000
 Pt         5.6240020700        0.0000000000        5.0000000000
 Pt         7.0300025900        2.4352643300        5.0000000000
 Pt         8.4360031000        0.0000000000        5.0000000000
 Pt         9.8420036200        2.4352643300        5.0000000000
 Pt         8.4360031000        4.8705286600        5.0000000000
 Pt         9.8420036200        7.3057929900        5.0000000000
 Pt        11.2480041400        4.8705286600        5.0000000000
 Pt        12.6540046500        7.3057929900        5.0000000000
 Pt         5.6186693058        3.2475113272        7.3348562138
 Pt         4.2153347774        0.8148716405        7.3356304446
 Pt         2.8132859553        3.2421921585        7.3376471970
 Pt         8.4333512246        8.1239969630        7.3251543263
 Pt         7.0232416123        5.6783027464        7.3270205771
 Pt         5.6262447326        8.1197681981        7.3290961954
 Pt        11.2548924096        3.2446058867        7.3327906953
 Pt         9.8409681103        0.8096649571        7.3337282191
 Pt         8.4341766700        3.2407413589        7.3292990194
 Pt        14.0607494506        8.1140696501        7.3276999922
 Pt        12.6603725505        5.6787846198        7.3310262250
 Pt        11.2485274376        8.1199802811        7.3267415503
 Pt         1.4094408513        0.8128638936        7.3360414762
 Pt         4.2144817905        5.6793441689        7.3328208068
 Pt         7.0314178637        0.8095289074        7.3329762519
 Pt         9.8472630080        5.6787713300        7.3241820802
 Pt         2.8132368863        1.6175864920        9.6829465093
 Pt         4.2260909070        4.0525898780        9.6665978620
 Pt         5.6188821966        1.6130990520        9.6585085449
 Pt         7.0279304037        4.0592059954        9.6705388234
 Pt         5.6320034217        6.4893233906        9.6571250009
 Pt         7.0301942152        8.9197195663        9.6723573585
 Pt         8.4363391032        6.4973997211        9.6408582421
 Pt         9.8457088152        8.9202718100        9.6665871392
 Pt         8.4371058601        1.6107194891        9.6704273948
 Pt         9.8468323642        4.0599223453        9.6602858174
 Pt        11.2583326982        1.6114214319        9.6582677154
 Pt        12.6521138741        4.0498672379        9.6642817977
 Pt        11.2434494233        6.4888174998        9.6512348130
 Pt        12.6519569573        8.9276143001        9.6621587944
 Pt        14.0617154548        6.4864259530        9.6606830586
 Pt        15.4706299779        8.9261698801        9.6635526529
  H         8.4331086670        3.2456101229       10.6559062593
      49
 i =        4, E =     -5814.4641184692
 Pt         0.0000000000        0.0000000000        5.0000000000
 Pt         1.4060005200        2.4352643300        5.0000000000
 Pt         2.8120010300        0.0000000000        5.0000000000
 Pt         4.2180015500        2.4352643300        5.0000000000
 Pt         2.8120010300        4.8705286600        5.0000000000
 Pt         4.2180015500        7.3057929900        5.0000000000
 Pt         5.6240020700        4.8705286600        5.0000000000
 Pt         7.0300025900        7.3057929900        5.0000000000
 Pt         5.6240020700        0.0000000000        5.0000000000
 Pt         7.0300025900        2.4352643300        5.0000000000
 Pt         8.4360031000        0.0000000000        5.0000000000
 Pt         9.8420036200        2.4352643300        5.0000000000
 Pt         8.4360031000        4.8705286600        5.0000000000
 Pt         9.8420036200        7.3057929900        5.0000000000
 Pt        11.2480041400        4.8705286600        5.0000000000
 Pt        12.6540046500        7.3057929900        5.0000000000
 Pt         5.6235844755        3.2494127878        7.3384306734
 Pt         4.2179742344        0.8117521396        7.3343170237
 Pt         2.8124795864        3.2464005582        7.3367494500
 Pt         8.4348908087        8.1169257691        7.3311180224
 Pt         7.0253846734        5.6782262406        7.3307712750
 Pt         5.6236507685        8.1180810087        7.3306452541
 Pt        11.2516560685        3.2474101476        7.3359823204
 Pt         9.8414393273        0.8057839283        7.3349435529
 Pt         8.4339399810        3.2437041159        7.3325326040
 Pt        14.0610756332        8.1160147462        7.3393467242
 Pt        12.6576578295        5.6798816321        7.3329651214
 Pt        11.2504762866        8.1170429991        7.3286900780
 Pt         1.4064773958        0.8105626791        7.3327279533
 Pt         4.2176789744        5.6812093193        7.3329218958
 Pt         7.0318490325        0.8062822942        7.3336610563
 Pt         9.8454502698        5.6798797589        7.3264025530
 Pt         2.8144883634        1.6163584782        9.6787291622
 Pt         4.2225717771        4.0513131628        9.6735841791
 Pt         5.6160215731        1.6143454900        9.6633309145
 Pt         7.0222698478        4.0588041881        9.6772620130
 Pt         5.6290325992        6.4885055633        9.6695799446
 Pt         7.0347997883        8.9225640860        9.6749482778
 Pt         8.4370320236        6.5027222051        9.6529878233
 Pt         9.8417533220        8.9223546660        9.6682536663
 Pt         8.4368283167        1.6076413012        9.6775275246
 Pt         9.8529346522        4.0598153036        9.6692861365
 Pt        11.2609463436        1.6117638149        9.6637240333
 Pt        12.6558374233        4.0491005752        9.6709012703
 Pt        11.2470082152        6.4883683792        9.6647258542
 Pt        12.6553817144        8.9238536188        9.6716043993
 Pt        14.0604272921        6.4890131053        9.6705842138
 Pt        15.4673701338        8.9234756667        9.6721535315
  H         8.4326452198        3.2463318346       10.6609385439
      49
 i =        5, E =     -5814.4636498886
 Pt         0.0000000000        0.0000000000        5.0000000000
 Pt         1.4060005200        2.4352643300        5.0000000000
 Pt         2.8120010300        0.0000000000        5.0000000000
 Pt         4.2180015500        2.4352643300        5.0000000000
 Pt         2.8120010300        4.8705286600        5.0000000000
 Pt         4.2180015500        7.3057929900        5.0000000000
 Pt         5.6240020700        4.8705286600        5.0000000000
 Pt         7.0300025900        7.3057929900        5.0000000000
 Pt         5.6240020700        0.0000000000        5.0000000000
 Pt         7.0300025900        2.4352643300        5.0000000000
 Pt         8.4360031000        0.0000000000        5.0000000000
 Pt         9.8420036200        2.4352643300        5.0000000000
 Pt         8.4360031000        4.8705286600        5.0000000000
 Pt         9.8420036200        7.3057929900        5.0000000000
 Pt        11.2480041400        4.8705286600        5.0000000000
 Pt        12.6540046500        7.3057929900        5.0000000000
 Pt         5.6235844755        3.2494127878        7.3384306734
 Pt         4.2179742344        0.8117521396        7.3343170237
 Pt         2.8124795864        3.2464005582        7.3367494500
 Pt         8.4348908087        8.1169257691        7.3311180224
 Pt         7.0253846734        5.6782262406        7.3307712750
 Pt         5.6236507685        8.1180810087        7.3306452541
 Pt        11.2516560685        3.2474101476        7.3359823204
 Pt         9.8414393273        0.8057839283        7.3349435529
 Pt         8.4339399810        3.2437041159        7.3325326040
 Pt        14.0610756332        8.1160147462        7.3393467242
 Pt        12.6576578295        5.6798816321        7.3329651214
 Pt        11.2504762866        8.1170429991        7.3286900780
 Pt         1.4064773958        0.8105626791        7.3327279533
 Pt         4.2176789744        5.6812093193        7.3329218958
 Pt         7.0318490325        0.8062822942        7.3336610563
 Pt         9.8454502698        5.6798797589        7.3264025530
 Pt         2.8144883634        1.6163584782        9.6787291622
 Pt         4.2225717771        4.0513131628        9.6735841791
 Pt         5.6160215731        1.6143454900        9.6633309145
 Pt         7.0222698478        4.0588041881        9.6772620130
 Pt         5.6290325992        6.4885055633        9.6695799446
 Pt         7.0347997883        8.9225640860        9.6749482778
 Pt         8.4370320236        6.5027222051        9.6529878233
 Pt         9.8417533220        8.9223546660        9.6682536663
 Pt         8.4368283167        1.6076413012        9.6775275246
 Pt         9.8529346522        4.0598153036        9.6692861365
 Pt        11.2609463436        1.6117638149        9.6637240333
 Pt        12.6558374233        4.0491005752        9.6709012703
 Pt        11.2470082152        6.4883683792        9.6647258542
 Pt        12.6553817144        8.9238536188        9.6716043993
 Pt        14.0604272921        6.4890131053        9.6705842138
 Pt        15.4673701338        8.9234756667        9.6721535315
  H         8.4326452198        3.2463318346       10.6609385439
      49
 i =        6, E =     -5814.4635858760
 Pt         0.0000000000        0.0000000000        5.0000000000
 Pt         1.4060005200        2.4352643300        5.0000000000
 Pt         2.8120010300        0.0000000000        5.0000000000
 Pt         4.2180015500        2.4352643300        5.0000000000
 Pt         2.8120010300        4.8705286600        5.0000000000
 Pt         4.2180015500        7.3057929900        5.0000000000
 Pt         5.6240020700        4.8705286600        5.0000000000
 Pt         7.0300025900        7.3057929900        5.0000000000
 Pt         5.6240020700        0.0000000000        5.0000000000
 Pt         7.0300025900        2.4352643300        5.0000000000
 Pt         8.4360031000        0.0000000000        5.0000000000
 Pt         9.8420036200        2.4352643300        5.0000000000
 Pt         8.4360031000        4.8705286600        5.0000000000
 Pt         9.8420036200        7.3057929900        5.0000000000
 Pt        11.2480041400        4.8705286600        5.0000000000
 Pt        12.6540046500        7.3057929900        5.0000000000
 Pt         5.6235844755        3.2494127878        7.3384306734
 Pt         4.2179742344        0.8117521396        7.3343170237
 Pt         2.8124795864        3.2464005582        7.3367494500
 Pt         8.4348908087        8.1169257691        7.3311180224
 Pt         7.0253846734        5.6782262406        7.3307712750
 Pt         5.6236507685        8.1180810087        7.3306452541
 Pt        11.2516560685        3.2474101476        7.3359823204
 Pt         9.8414393273        0.8057839283        7.3349435529
 Pt         8.4339399810        3.2437041159        7.3325326040
 Pt        14.0610756332        8.1160147462        7.3393467242
 Pt        12.6576578295        5.6798816321        7.3329651214
 Pt        11.2504762866        8.1170429991        7.3286900780
 Pt         1.4064773958        0.8105626791        7.3327279533
 Pt         4.2176789744        5.6812093193        7.3329218958
 Pt         7.0318490325        0.8062822942        7.3336610563
 Pt         9.8454502698        5.6798797589        7.3264025530
 Pt         2.8144883634        1.6163584782        9.6787291622
 Pt         4.2225717771        4.0513131628        9.6735841791
 Pt         5.6160215731        1.6143454900        9.6633309145
 Pt         7.0222698478        4.0588041881        9.6772620130
 Pt         5.6290325992        6.4885055633        9.6695799446
 Pt         7.0347997883        8.9225640860        9.6749482778
 Pt         8.4370320236        6.5027222051        9.6529878233
 Pt         9.8417533220        8.9223546660        9.6682536663
 Pt         8.4368283167        1.6076413012        9.6775275246
 Pt         9.8529346522        4.0598153036        9.6692861365
 Pt        11.2609463436        1.6117638149        9.6637240333
 Pt        12.6558374233        4.0491005752        9.6709012703
 Pt        11.2470082152        6.4883683792        9.6647258542
 Pt        12.6553817144        8.9238536188        9.6716043993
 Pt        14.0604272921        6.4890131053        9.6705842138
 Pt        15.4673701338        8.9234756667        9.6721535315
  H         8.4326452198        3.2463318346       10.6609385439
