       2
 i =        1, E =       -31.8620430686
  O         3.8652834631        3.9999994321        4.0000002928
  O         5.1345284956        4.0000005730        3.9999997079
       2
 i =        2, E =       -31.8637688983
  O         3.8746738680        3.9999994471        4.0000002811
  O         5.1252775474        4.0000005555        3.9999997208
       2
 i =        3, E =       -31.8648007025
  O         3.8923405556        3.9999995121        4.0000002596
  O         5.1086991218        4.0000004951        3.9999997400
       2
 i =        4, E =       -31.8648448745
  O         3.8893227216        3.9999995226        4.0000002519
  O         5.1118833535        4.0000004891        3.9999997451
       2
 i =        5, E =       -31.8648457624
  O         3.8897884339        3.9999995402        4.0000002423
  O         5.1117643562        4.0000004757        3.9999997525
       2
 i =        6, E =       -31.8648457610
  O         3.8897884339        3.9999995402        4.0000002423
  O         5.1117643562        4.0000004757        3.9999997525
