       2
 i =        1, E =       -31.8620430686
  O         0.0596520918        0.0000000835       -0.0000000698
  O        -0.0587069291       -0.0000001005        0.0000000782
       2
 i =        2, E =       -31.8637688983
  O         0.0389493121        0.0000000837       -0.0000000453
  O        -0.0376806728       -0.0000000874        0.0000000471
       2
 i =        3, E =       -31.8648007025
  O        -0.0080248028        0.0000000557       -0.0000000285
  O         0.0089570442       -0.0000000372        0.0000000183
       2
 i =        4, E =       -31.8648448745
  O         0.0014614534        0.0000000563       -0.0000000316
  O        -0.0003501548       -0.0000000428        0.0000000241
       2
 i =        5, E =       -31.8648457624
  O         0.0005935175        0.0000000558       -0.0000000285
  O         0.0005162738       -0.0000000426        0.0000000213
       2
 i =        6, E =       -31.8648457610
  O         0.0005935175        0.0000000558       -0.0000000285
  O         0.0005162738       -0.0000000426        0.0000000213
