       2
 i =        1, E =       -31.7994154270
  O         0.0583487530        0.0000006955       -0.0000004527
  O        -0.0574404420       -0.0000007041        0.0000004435
       2
 i =        2, E =       -31.8010881692
  O         0.0382484281       -0.0000001785        0.0000002021
  O        -0.0370142787        0.0000001768       -0.0000002048
       2
 i =        3, E =       -31.8021037870
  O        -0.0078301374        0.0000001300       -0.0000000702
  O         0.0087785258       -0.0000001055        0.0000000707
       2
 i =        4, E =       -31.8021469872
  O         0.0014574156       -0.0000001606        0.0000002471
  O        -0.0003424045        0.0000001769       -0.0000002447
       2
 i =        5, E =       -31.8021492398
  O         0.0005925794        0.0000003146       -0.0000003147
  O         0.0005236367       -0.0000002959        0.0000003158
       2
 i =        6, E =       -31.8021504826
  O         0.0005925794        0.0000003146       -0.0000003147
  O         0.0005236367       -0.0000002959        0.0000003158
