       1
 i =        1, E =       -33.3707525989
 Au        -0.0000000000       -0.0000000000        0.0000000000
       1
 i =        2, E =       -33.3761967470
 Au        -0.0000000000       -0.0000000000        0.0000000000
       1
 i =        3, E =       -33.3765511809
 Au         0.0000000000       -0.0000000000        0.0000000000
       1
 i =        4, E =       -33.3769261502
 Au        -0.0000000000        0.0000000000       -0.0000000000
       1
 i =        5, E =       -33.3773360684
 Au        -0.0000000000        0.0000000000       -0.0000000000
       1
 i =        6, E =       -33.3774438004
 Au         0.0000000000        0.0000000000        0.0000000000
       1
 i =        7, E =       -33.3774477288
 Au        -0.0000000000        0.0000000000       -0.0000000000
       1
 i =        8, E =       -33.3774673890
 Au        -0.0000000000       -0.0000000000       -0.0000000000
       1
 i =        9, E =       -33.3774811849
 Au        -0.0000000000       -0.0000000000       -0.0000000000
       1
 i =       10, E =       -33.3775378080
 Au        -0.0000000000       -0.0000000000       -0.0000000000
       1
 i =       11, E =       -33.3778716359
 Au        -0.0000000000        0.0000000000       -0.0000000000
       1
 i =       12, E =       -33.3778752687
 Au         0.0000000000        0.0000000000       -0.0000000000
       1
 i =       13, E =       -33.3778808046
 Au        -0.0000000000        0.0000000000        0.0000000000
       1
 i =       14, E =       -33.3778832779
 Au         0.0000000000        0.0000000000       -0.0000000000
       1
 i =       15, E =       -33.3778833378
 Au         0.0000000000        0.0000000000       -0.0000000000
       1
 i =       16, E =       -33.3778833422
 Au         0.0000000000        0.0000000000       -0.0000000000
