       2
 i =        1, E =        -1.1331112080
  H         0.0000000000        0.0000000000        0.0000000000
  H        -0.0248898730        0.0000000000        0.0000000000
       2
 i =        2, E =        -1.1342048793
  H         0.0000000000        0.0000000000        0.0000000000
  H        -0.0007463816        0.0000000000        0.0000000000
       2
 i =        3, E =        -1.1342056922
  H         0.0000000000        0.0000000000        0.0000000000
  H         0.0001072394        0.0000000000        0.0000000000
       2
 i =        4, E =        -1.1342056922
  H         0.0000000000        0.0000000000        0.0000000000
  H         0.0001072394        0.0000000000        0.0000000000
