       2
 i =        1, E =        -1.1331112080
  H         4.0000000000        4.0000000000        4.0000000000
  H         4.8081979895        4.0000000000        4.0000000000
       2
 i =        2, E =        -1.1342048793
  H         4.0000000000        4.0000000000        4.0000000000
  H         4.7648962235        4.0000000000        4.0000000000
       2
 i =        3, E =        -1.1342056922
  H         4.0000000000        4.0000000000        4.0000000000
  H         4.7635575754        4.0000000000        4.0000000000
       2
 i =        4, E =        -1.1342056922
  H         4.0000000000        4.0000000000        4.0000000000
  H         4.7635575754        4.0000000000        4.0000000000
