      49
 i =        1, E =     -5814.4633984289
 Pt         0.0000000000        0.0000000000        5.0000000000
 Pt         1.4060005200        2.4352643300        5.0000000000
 Pt         2.8120010300        0.0000000000        5.0000000000
 Pt         4.2180015500        2.4352643300        5.0000000000
 Pt         2.8120010300        4.8705286600        5.0000000000
 Pt         4.2180015500        7.3057929900        5.0000000000
 Pt         5.6240020700        4.8705286600        5.0000000000
 Pt         7.0300025900        7.3057929900        5.0000000000
 Pt         5.6240020700        0.0000000000        5.0000000000
 Pt         7.0300025900        2.4352643300        5.0000000000
 Pt         8.4360031000        0.0000000000        5.0000000000
 Pt         9.8420036200        2.4352643300        5.0000000000
 Pt         8.4360031000        4.8705286600        5.0000000000
 Pt         9.8420036200        7.3057929900        5.0000000000
 Pt        11.2480041400        4.8705286600        5.0000000000
 Pt        12.6540046500        7.3057929900        5.0000000000
 Pt         5.6121117585        3.2395720217        7.3183904944
 Pt         4.2096918577        0.8155041221        7.3374598705
 Pt         2.8141336159        3.2388512888        7.3371825378
 Pt         8.4364250618        8.1325305982        7.3206456698
 Pt         7.0220197279        5.6862829933        7.2994501959
 Pt         5.6271702808        8.1241648032        7.3169174982
 Pt        11.2607197479        3.2385274084        7.3179471220
 Pt         9.8496694660        0.8094931871        7.3151808923
 Pt         8.4349775519        3.2426100903        7.2987588194
 Pt        14.0589790118        8.1181130863        7.3115574794
 Pt        12.6588734568        5.6786451802        7.3128412099
 Pt        11.2458152378        8.1226593719        7.3136425973
 Pt         1.4123433851        0.8138473919        7.3383081519
 Pt         4.2121736034        5.6775046050        7.3136810151
 Pt         7.0232517010        0.8094432869        7.3133400576
 Pt         9.8486259110        5.6872277838        7.2992477364
 Pt         2.8123068753        1.6147184403        9.6880305482
 Pt         4.1918040113        4.0489033288        9.6675617921
 Pt         5.6115664177        1.5946246689        9.6712733127
 Pt         7.0186076582        4.0448681065        9.6242501597
 Pt         5.5895395835        6.5080492410        9.6188836460
 Pt         7.0196732766        8.9466291141        9.6714381806
 Pt         8.4409678385        6.5073771116        9.6231754561
 Pt         9.8538567474        8.9454434733        9.6763109372
 Pt         8.4363936228        1.5769815252        9.6128696178
 Pt         9.8560595347        4.0470215346        9.6194860026
 Pt        11.2647881902        1.5930766897        9.6715907763
 Pt        12.6804002693        4.0483431698        9.6704411127
 Pt        11.2817622160        6.5085092813        9.6147238349
 Pt        12.6564172142        8.9201400492        9.6418502998
 Pt        14.0611414871        6.4911253957        9.6441632658
 Pt        15.4645910559        8.9214375688        9.6424052137
  H         8.4319107351        4.8660472859       10.6852054678
      49
 i =        2, E =     -5814.4657586777
 Pt         0.0000000000        0.0000000000        5.0000000000
 Pt         1.4060005200        2.4352643300        5.0000000000
 Pt         2.8120010300        0.0000000000        5.0000000000
 Pt         4.2180015500        2.4352643300        5.0000000000
 Pt         2.8120010300        4.8705286600        5.0000000000
 Pt         4.2180015500        7.3057929900        5.0000000000
 Pt         5.6240020700        4.8705286600        5.0000000000
 Pt         7.0300025900        7.3057929900        5.0000000000
 Pt         5.6240020700        0.0000000000        5.0000000000
 Pt         7.0300025900        2.4352643300        5.0000000000
 Pt         8.4360031000        0.0000000000        5.0000000000
 Pt         9.8420036200        2.4352643300        5.0000000000
 Pt         8.4360031000        4.8705286600        5.0000000000
 Pt         9.8420036200        7.3057929900        5.0000000000
 Pt        11.2480041400        4.8705286600        5.0000000000
 Pt        12.6540046500        7.3057929900        5.0000000000
 Pt         5.6157549918        3.2414310843        7.3313427148
 Pt         4.2105232345        0.8153151467        7.3359512477
 Pt         2.8131984953        3.2382782052        7.3344592734
 Pt         8.4366399934        8.1273778676        7.3336561682
 Pt         7.0256802891        5.6842243669        7.3112335613
 Pt         5.6270926276        8.1240882284        7.3179666747
 Pt        11.2565162580        3.2417938717        7.3312917830
 Pt         9.8500095101        0.8104910895        7.3172381777
 Pt         8.4358357321        3.2439049549        7.3092016235
 Pt        14.0600334034        8.1173077304        7.3181592361
 Pt        12.6579292757        5.6763240722        7.3169136578
 Pt        11.2442958755        8.1228050530        7.3169690279
 Pt         1.4127679445        0.8141341865        7.3359193397
 Pt         4.2120239798        5.6766005367        7.3156800603
 Pt         7.0224438201        0.8099544278        7.3157289483
 Pt         9.8469060348        5.6849152544        7.3093519648
 Pt         2.8131385668        1.6156859046        9.6899255369
 Pt         4.2082234908        4.0501789857        9.6660116874
 Pt         5.6195041701        1.6082846020        9.6690823642
 Pt         7.0218373611        4.0476614890        9.6423968657
 Pt         5.5993459704        6.5031765313        9.6257276927
 Pt         7.0277938511        8.9321091843        9.6700728977
 Pt         8.4399444869        6.5017339888        9.6417361151
 Pt         9.8468467466        8.9317240055        9.6744417285
 Pt         8.4366746822        1.5876516665        9.6221830738
 Pt         9.8539080117        4.0489497520        9.6380844630
 Pt        11.2560970978        1.6073844612        9.6700450395
 Pt        12.6647035157        4.0499371245        9.6698642603
 Pt        11.2729572195        6.5033556296        9.6258966460
 Pt        12.6575359432        8.9194861875        9.6480246860
 Pt        14.0603072807        6.4912986286        9.6498404811
 Pt        15.4642027409        8.9213915793        9.6487018157
  H         8.4316047007        4.8660206500       10.6565765669
      49
 i =        3, E =     -5814.4667643215
 Pt         0.0000000000        0.0000000000        5.0000000000
 Pt         1.4060005200        2.4352643300        5.0000000000
 Pt         2.8120010300        0.0000000000        5.0000000000
 Pt         4.2180015500        2.4352643300        5.0000000000
 Pt         2.8120010300        4.8705286600        5.0000000000
 Pt         4.2180015500        7.3057929900        5.0000000000
 Pt         5.6240020700        4.8705286600        5.0000000000
 Pt         7.0300025900        7.3057929900        5.0000000000
 Pt         5.6240020700        0.0000000000        5.0000000000
 Pt         7.0300025900        2.4352643300        5.0000000000
 Pt         8.4360031000        0.0000000000        5.0000000000
 Pt         9.8420036200        2.4352643300        5.0000000000
 Pt         8.4360031000        4.8705286600        5.0000000000
 Pt         9.8420036200        7.3057929900        5.0000000000
 Pt        11.2480041400        4.8705286600        5.0000000000
 Pt        12.6540046500        7.3057929900        5.0000000000
 Pt         5.6249712796        3.2465126325        7.3412159216
 Pt         4.2115132564        0.8139691698        7.3403646510
 Pt         2.8115847473        3.2388603323        7.3387949898
 Pt         8.4370069967        8.1148804680        7.3424286257
 Pt         7.0294734640        5.6824281914        7.3275815888
 Pt         5.6266031284        8.1206823844        7.3236718809
 Pt        11.2471068240        3.2478306305        7.3415773891
 Pt         9.8473100325        0.8117137634        7.3244882010
 Pt         8.4368350249        3.2450839838        7.3265866668
 Pt        14.0592920509        8.1162086409        7.3246910878
 Pt        12.6546882559        5.6770816952        7.3273101473
 Pt        11.2451013105        8.1193051298        7.3266604568
 Pt         1.4120243397        0.8137728345        7.3394220126
 Pt         4.2144521804        5.6774434087        7.3238344587
 Pt         7.0250204632        0.8099509283        7.3241282049
 Pt         9.8445044547        5.6825192934        7.3272318711
 Pt         2.8142357012        1.6183307621        9.6859570416
 Pt         4.2178504530        4.0554247855        9.6686361673
 Pt         5.6271149014        1.6163446246        9.6719036490
 Pt         7.0155060349        4.0441390446        9.6602874967
 Pt         5.6107138713        6.4974045518        9.6392658679
 Pt         7.0291013433        8.9238200384        9.6705544041
 Pt         8.4385532224        6.5078555600        9.6613045027
 Pt         9.8463929484        8.9232567467        9.6747758805
 Pt         8.4365040390        1.6026251511        9.6401159764
 Pt         9.8609955614        4.0446686627        9.6589508483
 Pt        11.2477503742        1.6159059205        9.6714862106
 Pt        12.6565761611        4.0552796876        9.6724717768
 Pt        11.2612699172        6.4965969061        9.6453281697
 Pt        12.6519636698        8.9233891397        9.6553385986
 Pt        14.0592484183        6.4861297682        9.6577175086
 Pt        15.4698868293        8.9248937892        9.6562695278
  H         8.4312336285        4.8661374450       10.6335670941
      49
 i =        4, E =     -5814.4669486980
 Pt         0.0000000000        0.0000000000        5.0000000000
 Pt         1.4060005200        2.4352643300        5.0000000000
 Pt         2.8120010300        0.0000000000        5.0000000000
 Pt         4.2180015500        2.4352643300        5.0000000000
 Pt         2.8120010300        4.8705286600        5.0000000000
 Pt         4.2180015500        7.3057929900        5.0000000000
 Pt         5.6240020700        4.8705286600        5.0000000000
 Pt         7.0300025900        7.3057929900        5.0000000000
 Pt         5.6240020700        0.0000000000        5.0000000000
 Pt         7.0300025900        2.4352643300        5.0000000000
 Pt         8.4360031000        0.0000000000        5.0000000000
 Pt         9.8420036200        2.4352643300        5.0000000000
 Pt         8.4360031000        4.8705286600        5.0000000000
 Pt         9.8420036200        7.3057929900        5.0000000000
 Pt        11.2480041400        4.8705286600        5.0000000000
 Pt        12.6540046500        7.3057929900        5.0000000000
 Pt         5.6272752170        3.2466622702        7.3455317700
 Pt         4.2152164515        0.8109922043        7.3394463126
 Pt         2.8113809621        3.2417271728        7.3389836555
 Pt         8.4380056003        8.1118398002        7.3468580241
 Pt         7.0316514558        5.6807013888        7.3290221049
 Pt         5.6256237280        8.1191027896        7.3247417626
 Pt        11.2451119453        3.2490811983        7.3469018895
 Pt         9.8457808376        0.8108277389        7.3260241349
 Pt         8.4366313292        3.2467206853        7.3290741836
 Pt        14.0597429046        8.1156618020        7.3329120991
 Pt        12.6529548830        5.6782407230        7.3284905221
 Pt        11.2448678095        8.1168581934        7.3279065741
 Pt         1.4096366606        0.8121425245        7.3391779298
 Pt         4.2159106467        5.6784192453        7.3257310923
 Pt         7.0258304293        0.8106289950        7.3262020317
 Pt         9.8427624609        5.6812456557        7.3312713805
 Pt         2.8142612977        1.6204151530        9.6851115874
 Pt         4.2154694487        4.0533399647        9.6741691321
 Pt         5.6232048020        1.6166650218        9.6769707947
 Pt         7.0117128351        4.0427181431        9.6658618263
 Pt         5.6078636493        6.4990076849        9.6475786161
 Pt         7.0300166550        8.9294469530        9.6734659946
 Pt         8.4378885692        6.5129619899        9.6670203459
 Pt         9.8445682969        8.9282037558        9.6786397210
 Pt         8.4375022621        1.5998363064        9.6487479654
 Pt         9.8646206502        4.0426311237        9.6658986203
 Pt        11.2519290110        1.6164684384        9.6758368938
 Pt        12.6590240410        4.0535209984        9.6782122694
 Pt        11.2640059212        6.4976055770        9.6553857466
 Pt        12.6549969732        8.9239347429        9.6608949734
 Pt        14.0590347413        6.4909058340        9.6627081744
 Pt        15.4667149531        8.9250334305        9.6604965364
  H         8.4310561481        4.8663298162       10.6330564690
      49
 i =        5, E =     -5814.4669770345
 Pt         0.0000000000        0.0000000000        5.0000000000
 Pt         1.4060005200        2.4352643300        5.0000000000
 Pt         2.8120010300        0.0000000000        5.0000000000
 Pt         4.2180015500        2.4352643300        5.0000000000
 Pt         2.8120010300        4.8705286600        5.0000000000
 Pt         4.2180015500        7.3057929900        5.0000000000
 Pt         5.6240020700        4.8705286600        5.0000000000
 Pt         7.0300025900        7.3057929900        5.0000000000
 Pt         5.6240020700        0.0000000000        5.0000000000
 Pt         7.0300025900        2.4352643300        5.0000000000
 Pt         8.4360031000        0.0000000000        5.0000000000
 Pt         9.8420036200        2.4352643300        5.0000000000
 Pt         8.4360031000        4.8705286600        5.0000000000
 Pt         9.8420036200        7.3057929900        5.0000000000
 Pt        11.2480041400        4.8705286600        5.0000000000
 Pt        12.6540046500        7.3057929900        5.0000000000
 Pt         5.6281983421        3.2464920363        7.3476670492
 Pt         4.2177519129        0.8090666051        7.3388271551
 Pt         2.8115813755        3.2431229141        7.3390899320
 Pt         8.4383127073        8.1100051175        7.3485278412
 Pt         7.0313024672        5.6807074857        7.3342761956
 Pt         5.6256875604        8.1170656230        7.3284974068
 Pt        11.2440925415        3.2492962221        7.3497396964
 Pt         9.8441753519        0.8105053506        7.3298785970
 Pt         8.4367948645        3.2458865127        7.3344655590
 Pt        14.0591448367        8.1156173552        7.3350746111
 Pt        12.6513882891        5.6795288991        7.3333385961
 Pt        11.2457657093        8.1151031916        7.3320493633
 Pt         1.4085966508        0.8110548967        7.3385163338
 Pt         4.2176394249        5.6788201345        7.3300560269
 Pt         7.0265425283        0.8100886398        7.3298715629
 Pt         9.8432229314        5.6811367467        7.3375642533
 Pt         2.8141101642        1.6231619740        9.6830195306
 Pt         4.2137393058        4.0535018268        9.6795326545
 Pt         5.6218605914        1.6164120409        9.6816297428
 Pt         7.0106847052        4.0426127396        9.6725158925
 Pt         5.6072032601        6.5000250782        9.6553417115
 Pt         7.0287033788        8.9328160230        9.6760358877
 Pt         8.4371558374        6.5151178117        9.6738468142
 Pt         9.8453648660        8.9313823301        9.6822264768
 Pt         8.4392163308        1.6005231016        9.6558151495
 Pt         9.8655493867        4.0419780524        9.6738027183
 Pt        11.2536933433        1.6169306256        9.6799049936
 Pt        12.6607228194        4.0547127659        9.6834658535
 Pt        11.2653236408        6.4982573044        9.6635116205
 Pt        12.6537405674        8.9264121627        9.6669927702
 Pt        14.0585041768        6.4912117326        9.6681041740
 Pt        15.4678637650        8.9272540933        9.6660663736
  H         8.4309321375        4.8666014941       10.6344078794
      49
 i =        6, E =     -5814.4665899409
 Pt         0.0000000000        0.0000000000        5.0000000000
 Pt         1.4060005200        2.4352643300        5.0000000000
 Pt         2.8120010300        0.0000000000        5.0000000000
 Pt         4.2180015500        2.4352643300        5.0000000000
 Pt         2.8120010300        4.8705286600        5.0000000000
 Pt         4.2180015500        7.3057929900        5.0000000000
 Pt         5.6240020700        4.8705286600        5.0000000000
 Pt         7.0300025900        7.3057929900        5.0000000000
 Pt         5.6240020700        0.0000000000        5.0000000000
 Pt         7.0300025900        2.4352643300        5.0000000000
 Pt         8.4360031000        0.0000000000        5.0000000000
 Pt         9.8420036200        2.4352643300        5.0000000000
 Pt         8.4360031000        4.8705286600        5.0000000000
 Pt         9.8420036200        7.3057929900        5.0000000000
 Pt        11.2480041400        4.8705286600        5.0000000000
 Pt        12.6540046500        7.3057929900        5.0000000000
 Pt         5.6281983421        3.2464920363        7.3476670492
 Pt         4.2177519129        0.8090666051        7.3388271551
 Pt         2.8115813755        3.2431229141        7.3390899320
 Pt         8.4383127073        8.1100051175        7.3485278412
 Pt         7.0313024672        5.6807074857        7.3342761956
 Pt         5.6256875604        8.1170656230        7.3284974068
 Pt        11.2440925415        3.2492962221        7.3497396964
 Pt         9.8441753519        0.8105053506        7.3298785970
 Pt         8.4367948645        3.2458865127        7.3344655590
 Pt        14.0591448367        8.1156173552        7.3350746111
 Pt        12.6513882891        5.6795288991        7.3333385961
 Pt        11.2457657093        8.1151031916        7.3320493633
 Pt         1.4085966508        0.8110548967        7.3385163338
 Pt         4.2176394249        5.6788201345        7.3300560269
 Pt         7.0265425283        0.8100886398        7.3298715629
 Pt         9.8432229314        5.6811367467        7.3375642533
 Pt         2.8141101642        1.6231619740        9.6830195306
 Pt         4.2137393058        4.0535018268        9.6795326545
 Pt         5.6218605914        1.6164120409        9.6816297428
 Pt         7.0106847052        4.0426127396        9.6725158925
 Pt         5.6072032601        6.5000250782        9.6553417115
 Pt         7.0287033788        8.9328160230        9.6760358877
 Pt         8.4371558374        6.5151178117        9.6738468142
 Pt         9.8453648660        8.9313823301        9.6822264768
 Pt         8.4392163308        1.6005231016        9.6558151495
 Pt         9.8655493867        4.0419780524        9.6738027183
 Pt        11.2536933433        1.6169306256        9.6799049936
 Pt        12.6607228194        4.0547127659        9.6834658535
 Pt        11.2653236408        6.4982573044        9.6635116205
 Pt        12.6537405674        8.9264121627        9.6669927702
 Pt        14.0585041768        6.4912117326        9.6681041740
 Pt        15.4678637650        8.9272540933        9.6660663736
  H         8.4309321375        4.8666014941       10.6344078794
      49
 i =        7, E =     -5814.4666303354
 Pt         0.0000000000        0.0000000000        5.0000000000
 Pt         1.4060005200        2.4352643300        5.0000000000
 Pt         2.8120010300        0.0000000000        5.0000000000
 Pt         4.2180015500        2.4352643300        5.0000000000
 Pt         2.8120010300        4.8705286600        5.0000000000
 Pt         4.2180015500        7.3057929900        5.0000000000
 Pt         5.6240020700        4.8705286600        5.0000000000
 Pt         7.0300025900        7.3057929900        5.0000000000
 Pt         5.6240020700        0.0000000000        5.0000000000
 Pt         7.0300025900        2.4352643300        5.0000000000
 Pt         8.4360031000        0.0000000000        5.0000000000
 Pt         9.8420036200        2.4352643300        5.0000000000
 Pt         8.4360031000        4.8705286600        5.0000000000
 Pt         9.8420036200        7.3057929900        5.0000000000
 Pt        11.2480041400        4.8705286600        5.0000000000
 Pt        12.6540046500        7.3057929900        5.0000000000
 Pt         5.6281983421        3.2464920363        7.3476670492
 Pt         4.2177519129        0.8090666051        7.3388271551
 Pt         2.8115813755        3.2431229141        7.3390899320
 Pt         8.4383127073        8.1100051175        7.3485278412
 Pt         7.0313024672        5.6807074857        7.3342761956
 Pt         5.6256875604        8.1170656230        7.3284974068
 Pt        11.2440925415        3.2492962221        7.3497396964
 Pt         9.8441753519        0.8105053506        7.3298785970
 Pt         8.4367948645        3.2458865127        7.3344655590
 Pt        14.0591448367        8.1156173552        7.3350746111
 Pt        12.6513882891        5.6795288991        7.3333385961
 Pt        11.2457657093        8.1151031916        7.3320493633
 Pt         1.4085966508        0.8110548967        7.3385163338
 Pt         4.2176394249        5.6788201345        7.3300560269
 Pt         7.0265425283        0.8100886398        7.3298715629
 Pt         9.8432229314        5.6811367467        7.3375642533
 Pt         2.8141101642        1.6231619740        9.6830195306
 Pt         4.2137393058        4.0535018268        9.6795326545
 Pt         5.6218605914        1.6164120409        9.6816297428
 Pt         7.0106847052        4.0426127396        9.6725158925
 Pt         5.6072032601        6.5000250782        9.6553417115
 Pt         7.0287033788        8.9328160230        9.6760358877
 Pt         8.4371558374        6.5151178117        9.6738468142
 Pt         9.8453648660        8.9313823301        9.6822264768
 Pt         8.4392163308        1.6005231016        9.6558151495
 Pt         9.8655493867        4.0419780524        9.6738027183
 Pt        11.2536933433        1.6169306256        9.6799049936
 Pt        12.6607228194        4.0547127659        9.6834658535
 Pt        11.2653236408        6.4982573044        9.6635116205
 Pt        12.6537405674        8.9264121627        9.6669927702
 Pt        14.0585041768        6.4912117326        9.6681041740
 Pt        15.4678637650        8.9272540933        9.6660663736
  H         8.4309321375        4.8666014941       10.6344078794
