      49
 i =        1, E =     -5814.4633984289
 Pt         0.0000000000        0.0000000000        0.0000000000
 Pt         0.0000000000        0.0000000000        0.0000000000
 Pt         0.0000000000        0.0000000000        0.0000000000
 Pt         0.0000000000        0.0000000000        0.0000000000
 Pt         0.0000000000        0.0000000000        0.0000000000
 Pt         0.0000000000        0.0000000000        0.0000000000
 Pt         0.0000000000        0.0000000000        0.0000000000
 Pt         0.0000000000        0.0000000000        0.0000000000
 Pt         0.0000000000        0.0000000000        0.0000000000
 Pt         0.0000000000        0.0000000000        0.0000000000
 Pt         0.0000000000        0.0000000000        0.0000000000
 Pt         0.0000000000        0.0000000000        0.0000000000
 Pt         0.0000000000        0.0000000000        0.0000000000
 Pt         0.0000000000        0.0000000000        0.0000000000
 Pt         0.0000000000        0.0000000000        0.0000000000
 Pt         0.0000000000        0.0000000000        0.0000000000
 Pt         0.0019860467        0.0010421639        0.0065706584
 Pt         0.0005721637       -0.0003049510       -0.0001116493
 Pt        -0.0004437177        0.0000161777       -0.0007467769
 Pt         0.0002303125       -0.0027435135        0.0065382573
 Pt         0.0011711225       -0.0005241457        0.0042849411
 Pt        -0.0000933000       -0.0001983971        0.0003908412
 Pt        -0.0021237405        0.0015478950        0.0069500610
 Pt         0.0001109088        0.0003528364        0.0007900007
 Pt         0.0003150756        0.0003898952        0.0037392991
 Pt         0.0003487386       -0.0002347516        0.0025042203
 Pt        -0.0002421282       -0.0008945356        0.0015990761
 Pt        -0.0006463174        0.0002238425        0.0013187632
 Pt        -0.0000476968        0.0001425701       -0.0007042429
 Pt         0.0000766826       -0.0001619115        0.0009277799
 Pt        -0.0002968644        0.0001534337        0.0009663422
 Pt        -0.0006017349       -0.0006703468        0.0035403202
 Pt         0.0004231037        0.0002441703        0.0006451959
 Pt         0.0058419218        0.0002203089       -0.0007316800
 Pt         0.0024592445        0.0048345180       -0.0009881065
 Pt        -0.0016704467       -0.0005119437        0.0033977307
 Pt         0.0031759935       -0.0016631235        0.0020626431
 Pt         0.0031198020       -0.0049661455       -0.0006874511
 Pt        -0.0005473108        0.0013770432        0.0036257737
 Pt        -0.0027115349       -0.0045667146       -0.0010983688
 Pt         0.0000936025        0.0034490005        0.0029596605
 Pt         0.0021195299       -0.0011192984        0.0036554843
 Pt        -0.0030426066        0.0052966331       -0.0008673057
 Pt        -0.0056731678        0.0003588906       -0.0007346037
 Pt        -0.0027834689       -0.0017364916        0.0034616623
 Pt         0.0006069340       -0.0002938951        0.0016531619
 Pt        -0.0003058409        0.0003883284        0.0015437424
 Pt        -0.0004651532       -0.0001727612        0.0017148764
  H        -0.0000792230        0.0000004467       -0.0071502657
      49
 i =        2, E =     -5814.4657586777
 Pt         0.0000000000        0.0000000000        0.0000000000
 Pt         0.0000000000        0.0000000000        0.0000000000
 Pt         0.0000000000        0.0000000000        0.0000000000
 Pt         0.0000000000        0.0000000000        0.0000000000
 Pt         0.0000000000        0.0000000000        0.0000000000
 Pt         0.0000000000        0.0000000000        0.0000000000
 Pt         0.0000000000        0.0000000000        0.0000000000
 Pt         0.0000000000        0.0000000000        0.0000000000
 Pt         0.0000000000        0.0000000000        0.0000000000
 Pt         0.0000000000        0.0000000000        0.0000000000
 Pt         0.0000000000        0.0000000000        0.0000000000
 Pt         0.0000000000        0.0000000000        0.0000000000
 Pt         0.0000000000        0.0000000000        0.0000000000
 Pt         0.0000000000        0.0000000000        0.0000000000
 Pt         0.0000000000        0.0000000000        0.0000000000
 Pt         0.0000000000        0.0000000000        0.0000000000
 Pt         0.0016816764        0.0009238355        0.0026222762
 Pt         0.0002911276       -0.0003051086        0.0007744804
 Pt        -0.0002967209        0.0001742862        0.0006345915
 Pt         0.0001310969       -0.0022729992        0.0024476632
 Pt         0.0005385116       -0.0001905348        0.0025509521
 Pt        -0.0001009029       -0.0005497390        0.0008098323
 Pt        -0.0016908591        0.0010898444        0.0028062615
 Pt        -0.0003640857        0.0001890587        0.0010640591
 Pt         0.0001612425        0.0001563049        0.0026260703
 Pt        -0.0000887287       -0.0001431446        0.0011229679
 Pt        -0.0004170690        0.0000136898        0.0015857206
 Pt         0.0000210287       -0.0003876137        0.0014646392
 Pt        -0.0001892585       -0.0000222761        0.0004914601
 Pt         0.0003909634        0.0001720362        0.0012640384
 Pt         0.0003265668       -0.0000023233        0.0012571574
 Pt        -0.0003627266       -0.0003058009        0.0026464970
 Pt         0.0002319740        0.0003334407       -0.0005089599
 Pt         0.0017016090        0.0006286252        0.0002309623
 Pt         0.0010444513        0.0014099248        0.0002283880
 Pt        -0.0021778116       -0.0011567705        0.0013551395
 Pt         0.0016258253       -0.0008666541        0.0018209881
 Pt         0.0004857012       -0.0013754472       -0.0000667861
 Pt        -0.0003042491        0.0023710594        0.0016331747
 Pt        -0.0003365630       -0.0013239060       -0.0002133491
 Pt        -0.0000196648        0.0021199741        0.0024868858
 Pt         0.0023387883       -0.0014286814        0.0018186879
 Pt        -0.0013184175        0.0016026470        0.0000022904
 Pt        -0.0015240423        0.0006619095        0.0000792897
 Pt        -0.0016274561       -0.0009944510        0.0026562839
 Pt        -0.0006280619        0.0004850504        0.0008736517
 Pt        -0.0001684253       -0.0005375337        0.0009717343
 Pt         0.0006023394        0.0003980214        0.0009201064
  H        -0.0000431242        0.0000201573       -0.0023131314
      49
 i =        3, E =     -5814.4667643215
 Pt         0.0000000000        0.0000000000        0.0000000000
 Pt         0.0000000000        0.0000000000        0.0000000000
 Pt         0.0000000000        0.0000000000        0.0000000000
 Pt         0.0000000000        0.0000000000        0.0000000000
 Pt         0.0000000000        0.0000000000        0.0000000000
 Pt         0.0000000000        0.0000000000        0.0000000000
 Pt         0.0000000000        0.0000000000        0.0000000000
 Pt         0.0000000000        0.0000000000        0.0000000000
 Pt         0.0000000000        0.0000000000        0.0000000000
 Pt         0.0000000000        0.0000000000        0.0000000000
 Pt         0.0000000000        0.0000000000        0.0000000000
 Pt         0.0000000000        0.0000000000        0.0000000000
 Pt         0.0000000000        0.0000000000        0.0000000000
 Pt         0.0000000000        0.0000000000        0.0000000000
 Pt         0.0000000000        0.0000000000        0.0000000000
 Pt         0.0000000000        0.0000000000        0.0000000000
 Pt         0.0002087809       -0.0000814275        0.0004570338
 Pt         0.0006349325       -0.0005078204       -0.0002084906
 Pt         0.0000034448        0.0005127107        0.0000007072
 Pt         0.0001719216       -0.0002644636        0.0004947583
 Pt         0.0002601461       -0.0002373870       -0.0002101505
 Pt        -0.0001656170       -0.0002221580        0.0000711875
 Pt        -0.0001404811        0.0000761574        0.0006299299
 Pt        -0.0002272592       -0.0001939016        0.0001123186
 Pt        -0.0000664558        0.0002478614       -0.0000260079
 Pt         0.0000773623       -0.0000637259        0.0012478853
 Pt        -0.0002318592        0.0002233059       -0.0000344373
 Pt        -0.0000372329       -0.0003671177        0.0000004191
 Pt        -0.0004220081       -0.0002854515       -0.0000680204
 Pt         0.0002205098        0.0001756204        0.0001654425
 Pt         0.0001081510        0.0001120354        0.0001837348
 Pt        -0.0002399465       -0.0001441165        0.0002427305
 Pt        -0.0000236509        0.0003044295       -0.0001060259
 Pt        -0.0008354502       -0.0004907142        0.0009503941
 Pt        -0.0009579603       -0.0002886736        0.0008726422
 Pt        -0.0006892403       -0.0002737520        0.0003075116
 Pt        -0.0008639291        0.0004620996        0.0011171867
 Pt         0.0000277537        0.0013651752        0.0005212389
 Pt        -0.0000832272        0.0009779595        0.0002985013
 Pt        -0.0002202436        0.0012397081        0.0006930968
 Pt         0.0001758491       -0.0009322321        0.0010585611
 Pt         0.0006320113       -0.0003657819        0.0004932683
 Pt         0.0010203843       -0.0002565432        0.0007580847
 Pt         0.0008068700       -0.0004384940        0.0009628626
 Pt         0.0008360672        0.0003795225        0.0012523105
 Pt         0.0006293959        0.0000333345        0.0007462543
 Pt        -0.0000067967        0.0009483458        0.0006449314
 Pt        -0.0006701531       -0.0000430389        0.0005046832
  H        -0.0000193865        0.0000326716        0.0008348312
      49
 i =        4, E =     -5814.4669486980
 Pt         0.0000000000        0.0000000000        0.0000000000
 Pt         0.0000000000        0.0000000000        0.0000000000
 Pt         0.0000000000        0.0000000000        0.0000000000
 Pt         0.0000000000        0.0000000000        0.0000000000
 Pt         0.0000000000        0.0000000000        0.0000000000
 Pt         0.0000000000        0.0000000000        0.0000000000
 Pt         0.0000000000        0.0000000000        0.0000000000
 Pt         0.0000000000        0.0000000000        0.0000000000
 Pt         0.0000000000        0.0000000000        0.0000000000
 Pt         0.0000000000        0.0000000000        0.0000000000
 Pt         0.0000000000        0.0000000000        0.0000000000
 Pt         0.0000000000        0.0000000000        0.0000000000
 Pt         0.0000000000        0.0000000000        0.0000000000
 Pt         0.0000000000        0.0000000000        0.0000000000
 Pt         0.0000000000        0.0000000000        0.0000000000
 Pt         0.0000000000        0.0000000000        0.0000000000
 Pt        -0.0002782527       -0.0001564985       -0.0004842176
 Pt         0.0000607937       -0.0000228357       -0.0000480111
 Pt         0.0001167916       -0.0000768649        0.0000009107
 Pt        -0.0000844695        0.0002169086       -0.0006112408
 Pt        -0.0005113401        0.0003066516        0.0007901618
 Pt         0.0001727749       -0.0002500250        0.0007400127
 Pt         0.0002157179       -0.0002565982       -0.0004747299
 Pt        -0.0001653998        0.0000231833        0.0006626846
 Pt         0.0000492319       -0.0004933216        0.0006839924
 Pt        -0.0002337394        0.0000928678       -0.0008631665
 Pt        -0.0001012717        0.0001935153        0.0009077202
 Pt         0.0002906400       -0.0000614633        0.0007351985
 Pt         0.0000993416       -0.0000373302       -0.0001277089
 Pt         0.0002025618       -0.0000416375        0.0007169878
 Pt         0.0000535298       -0.0002500498        0.0005157019
 Pt         0.0004328629        0.0002199291        0.0006862697
 Pt        -0.0000714461        0.0003578210       -0.0004100747
 Pt        -0.0004542669        0.0002989774        0.0005581577
 Pt         0.0000551836       -0.0004195781        0.0004572631
 Pt         0.0004106545        0.0002249012        0.0005174676
 Pt         0.0000046391        0.0001515606        0.0005243311
 Pt        -0.0006386731        0.0003340483        0.0002496994
 Pt        -0.0000521013       -0.0002953263        0.0005160084
 Pt         0.0006158469        0.0003712228        0.0003866053
 Pt         0.0002882609        0.0002985674        0.0002149769
 Pt        -0.0004384997        0.0002094173        0.0005953324
 Pt         0.0000436302       -0.0002952960        0.0004177976
 Pt         0.0004138618        0.0005082471        0.0004943823
 Pt         0.0001663963        0.0001595325        0.0002331369
 Pt        -0.0007632177        0.0005372946        0.0005830376
 Pt        -0.0000807324       -0.0006150598        0.0004888278
 Pt         0.0007470962        0.0005288320        0.0006430641
  H         0.0000022696        0.0000401197        0.0010099595
      49
 i =        5, E =     -5814.4669770345
 Pt         0.0000000000        0.0000000000        0.0000000000
 Pt         0.0000000000        0.0000000000        0.0000000000
 Pt         0.0000000000        0.0000000000        0.0000000000
 Pt         0.0000000000        0.0000000000        0.0000000000
 Pt         0.0000000000        0.0000000000        0.0000000000
 Pt         0.0000000000        0.0000000000        0.0000000000
 Pt         0.0000000000        0.0000000000        0.0000000000
 Pt         0.0000000000        0.0000000000        0.0000000000
 Pt         0.0000000000        0.0000000000        0.0000000000
 Pt         0.0000000000        0.0000000000        0.0000000000
 Pt         0.0000000000        0.0000000000        0.0000000000
 Pt         0.0000000000        0.0000000000        0.0000000000
 Pt         0.0000000000        0.0000000000        0.0000000000
 Pt         0.0000000000        0.0000000000        0.0000000000
 Pt         0.0000000000        0.0000000000        0.0000000000
 Pt         0.0000000000        0.0000000000        0.0000000000
 Pt        -0.0003160343       -0.0001718847       -0.0001501879
 Pt        -0.0001355124        0.0000870408        0.0000236046
 Pt         0.0000928030       -0.0001797179        0.0000308139
 Pt        -0.0000124384        0.0004065593       -0.0001968598
 Pt        -0.0003767041        0.0001890718        0.0003142080
 Pt         0.0000244298        0.0000271012        0.0004034587
 Pt         0.0002835685       -0.0002920598       -0.0002004733
 Pt         0.0001023146       -0.0000875782        0.0002302515
 Pt        -0.0000334332       -0.0003293959        0.0002360304
 Pt        -0.0000471864        0.0000986705       -0.0003735245
 Pt         0.0001822829       -0.0000333653        0.0002458638
 Pt         0.0000987406        0.0002251912        0.0002793527
 Pt         0.0002160061        0.0000967061       -0.0000702056
 Pt        -0.0001152407       -0.0000308612        0.0004416774
 Pt        -0.0000603810       -0.0002902583        0.0002386796
 Pt         0.0003066022        0.0002513457        0.0001422222
 Pt        -0.0001613630        0.0000769432       -0.0003696122
 Pt        -0.0001684781        0.0002710645        0.0003600511
 Pt         0.0001962482       -0.0001683500        0.0002767105
 Pt         0.0001095023        0.0001154850       -0.0000751846
 Pt         0.0001044623        0.0000429085        0.0003943511
 Pt        -0.0003259656        0.0000575652        0.0002138864
 Pt         0.0001140830       -0.0000104624       -0.0000525282
 Pt         0.0003611241        0.0001126361        0.0002962572
 Pt         0.0001911896        0.0004812170       -0.0000616530
 Pt        -0.0000805151        0.0001712689       -0.0001371016
 Pt        -0.0000643424       -0.0000697995        0.0002921571
 Pt         0.0000791410        0.0003879003        0.0002977173
 Pt        -0.0001483067        0.0001415479       -0.0000859834
 Pt        -0.0002144338        0.0003054576        0.0001846189
 Pt         0.0001428355       -0.0002594031        0.0001715730
 Pt         0.0003386993        0.0002369392        0.0002134506
  H         0.0000109532        0.0000563729        0.0013481666
      49
 i =        6, E =     -5814.4665899409
 Pt         0.0000000000        0.0000000000        0.0000000000
 Pt         0.0000000000        0.0000000000        0.0000000000
 Pt         0.0000000000        0.0000000000        0.0000000000
 Pt         0.0000000000        0.0000000000        0.0000000000
 Pt         0.0000000000        0.0000000000        0.0000000000
 Pt         0.0000000000        0.0000000000        0.0000000000
 Pt         0.0000000000        0.0000000000        0.0000000000
 Pt         0.0000000000        0.0000000000        0.0000000000
 Pt         0.0000000000        0.0000000000        0.0000000000
 Pt         0.0000000000        0.0000000000        0.0000000000
 Pt         0.0000000000        0.0000000000        0.0000000000
 Pt         0.0000000000        0.0000000000        0.0000000000
 Pt         0.0000000000        0.0000000000        0.0000000000
 Pt         0.0000000000        0.0000000000        0.0000000000
 Pt         0.0000000000        0.0000000000        0.0000000000
 Pt         0.0000000000        0.0000000000        0.0000000000
 Pt        -0.0002148357       -0.0003742960       -0.0001600841
 Pt        -0.0002889891       -0.0000601732        0.0002434850
 Pt        -0.0000158413        0.0003651872       -0.0000998355
 Pt        -0.0001162536        0.0008518903       -0.0001321504
 Pt        -0.0006837440        0.0001727909        0.0002569879
 Pt         0.0001974449       -0.0004093639        0.0006447185
 Pt         0.0002373136       -0.0006087259       -0.0006894420
 Pt        -0.0004103874        0.0004998303        0.0004424556
 Pt         0.0000244462       -0.0008997657        0.0002166471
 Pt        -0.0001944727        0.0001516094       -0.0003434513
 Pt         0.0011190777       -0.0003000233       -0.0002392533
 Pt         0.0000089581        0.0004436124        0.0004716972
 Pt         0.0003168266        0.0000812564        0.0002514878
 Pt        -0.0002825911       -0.0002479575        0.0003641145
 Pt         0.0004824689        0.0001438778        0.0008254109
 Pt        -0.0001980636        0.0000861852       -0.0000505249
 Pt         0.0000894300       -0.0005660689       -0.0002826932
 Pt         0.0000024138        0.0012533943        0.0000342967
 Pt         0.0002261909       -0.0000423175        0.0000955376
 Pt         0.0000632451        0.0000410405       -0.0004631181
 Pt         0.0004054402        0.0006521431        0.0002581044
 Pt         0.0005533342       -0.0001316838        0.0007113696
 Pt         0.0000824950        0.0002799591       -0.0001494940
 Pt         0.0001985179       -0.0001282339       -0.0000689494
 Pt        -0.0002364888        0.0004048554        0.0005215726
 Pt        -0.0004709249        0.0002386834       -0.0002624432
 Pt        -0.0001788836        0.0001672316        0.0004005106
 Pt         0.0004326534        0.0000967678       -0.0000529440
 Pt        -0.0000538535        0.0005280936       -0.0006181951
 Pt        -0.0003645439        0.0003315675        0.0001743864
 Pt         0.0003746002       -0.0007533589        0.0000962088
 Pt        -0.0003506647       -0.0000518340        0.0000451917
  H        -0.0000078704        0.0000835200        0.0013838723
      49
 i =        7, E =     -5814.4666303354
 Pt         0.0000000000        0.0000000000        0.0000000000
 Pt         0.0000000000        0.0000000000        0.0000000000
 Pt         0.0000000000        0.0000000000        0.0000000000
 Pt         0.0000000000        0.0000000000        0.0000000000
 Pt         0.0000000000        0.0000000000        0.0000000000
 Pt         0.0000000000        0.0000000000        0.0000000000
 Pt         0.0000000000        0.0000000000        0.0000000000
 Pt         0.0000000000        0.0000000000        0.0000000000
 Pt         0.0000000000        0.0000000000        0.0000000000
 Pt         0.0000000000        0.0000000000        0.0000000000
 Pt         0.0000000000        0.0000000000        0.0000000000
 Pt         0.0000000000        0.0000000000        0.0000000000
 Pt         0.0000000000        0.0000000000        0.0000000000
 Pt         0.0000000000        0.0000000000        0.0000000000
 Pt         0.0000000000        0.0000000000        0.0000000000
 Pt         0.0000000000        0.0000000000        0.0000000000
 Pt        -0.0002148357       -0.0003742960       -0.0001600841
 Pt        -0.0002889891       -0.0000601732        0.0002434850
 Pt        -0.0000158413        0.0003651872       -0.0000998355
 Pt        -0.0001162536        0.0008518903       -0.0001321504
 Pt        -0.0006837440        0.0001727909        0.0002569879
 Pt         0.0001974449       -0.0004093639        0.0006447185
 Pt         0.0002373136       -0.0006087259       -0.0006894420
 Pt        -0.0004103874        0.0004998303        0.0004424556
 Pt         0.0000244462       -0.0008997657        0.0002166471
 Pt        -0.0001944727        0.0001516094       -0.0003434513
 Pt         0.0011190777       -0.0003000233       -0.0002392533
 Pt         0.0000089581        0.0004436124        0.0004716972
 Pt         0.0003168266        0.0000812564        0.0002514878
 Pt        -0.0002825911       -0.0002479575        0.0003641145
 Pt         0.0004824689        0.0001438778        0.0008254109
 Pt        -0.0001980636        0.0000861852       -0.0000505249
 Pt         0.0000894300       -0.0005660689       -0.0002826932
 Pt         0.0000024138        0.0012533943        0.0000342967
 Pt         0.0002261909       -0.0000423175        0.0000955376
 Pt         0.0000632451        0.0000410405       -0.0004631181
 Pt         0.0004054402        0.0006521431        0.0002581044
 Pt         0.0005533342       -0.0001316838        0.0007113696
 Pt         0.0000824950        0.0002799591       -0.0001494940
 Pt         0.0001985179       -0.0001282339       -0.0000689494
 Pt        -0.0002364888        0.0004048554        0.0005215726
 Pt        -0.0004709249        0.0002386834       -0.0002624432
 Pt        -0.0001788836        0.0001672316        0.0004005106
 Pt         0.0004326534        0.0000967678       -0.0000529440
 Pt        -0.0000538535        0.0005280936       -0.0006181951
 Pt        -0.0003645439        0.0003315675        0.0001743864
 Pt         0.0003746002       -0.0007533589        0.0000962088
 Pt        -0.0003506647       -0.0000518340        0.0000451917
  H        -0.0000078704        0.0000835200        0.0013838723
