      18
 i =      49, E =      -61.6127589121
  C         7.3629150000        6.8025800000        6.1148800000
  C         8.2334820097        7.7879118505        6.5113178957
  O         7.7379631168        8.4421429294        7.5939733998
  H         9.1891269845        8.1471716695        6.1280166441
  C         9.3792030766        6.0351017222        8.6188423547
  C         6.5584376089        7.8514733810        7.9308262290
  C         6.2741561796        6.8456748071        7.0348359464
  C         5.8161985998        8.4192308110        9.0794824339
  C         8.3462195928        6.0871051940        9.4785677268
  H         7.4955795001        6.1224053217        5.2717930157
  H         5.3859254853        6.2111438670        7.0590097755
  H         6.4999481717        8.6726936524        9.9088129137
  H         5.0827251906        7.6830341484        9.4472840536
  H         5.2642530375        9.3375835181        8.8036806732
  H         7.5523890468        5.3296113547        9.4720174461
  H         8.2656682135        6.8894294916       10.2247850819
  H        10.1726486230        6.7940130141        8.6326527437
  H         9.4684698855        5.2344390081        7.8741179792
      18
 i =      49, E =      -61.6126108223
  C         7.3724550550        6.7803573466        6.1060827013
  C         8.2401520550        7.7680772515        6.5037215622
  O         7.7373858297        8.4308065268        7.5772017081
  H         9.1945373573        8.1298541079        6.1213514815
  C         9.3529199053        6.0729014927        8.6227131740
  C         6.5583923587        7.8388792474        7.9141819561
  C         6.2824366401        6.8243902766        7.0229892012
  C         5.8167394084        8.4242582836        9.0541710304
  C         8.2984268290        6.1300262457        9.4566927902
  H         7.5143660107        6.0951079380        5.2689144490
  H         5.3996292610        6.1828441137        7.0403240578
  H         6.5151275281        8.7710228783        9.8358111451
  H         5.1466996897        7.6701396402        9.4987927012
  H         5.1991102763        9.2895703627        8.7475678954
  H         7.5325086170        5.3444383773        9.4725666330
  H         8.1678691133        6.9668142652       10.1565829953
  H        10.1166113435        6.8616582044        8.6112456659
  H         9.4893627206        5.2383301745        7.9235978873
      18
 i =      49, E =      -61.6119530672
  C         7.3973729315        6.7607004581        6.1245341691
  C         8.2602834739        7.7534844951        6.5223556415
  O         7.7411622837        8.4319062839        7.5775969349
  H         9.2217229999        8.1075627971        6.1505503307
  C         9.3096343697        6.1219586002        8.5956322730
  C         6.5645776251        7.8356638071        7.9137146102
  C         6.2989533655        6.8122269868        7.0285271459
  C         5.8104086529        8.4266308692        9.0431498755
  C         8.2475348609        6.1789742559        9.4210547720
  H         7.5538895622        6.0613625448        5.3017451830
  H         5.4207960552        6.1644800005        7.0488948801
  H         6.5019706803        8.8654952762        9.7830817730
  H         5.2112248690        7.6513963492        9.5492985199
  H         5.1215395430        9.2252063263        8.7097867877
  H         7.4836267078        5.3915906450        9.4351097086
  H         8.1058941942        7.0207482176       10.1125981393
  H        10.0675480405        6.9161493043        8.5837563180
  H         9.4559703794        5.2858167274        7.9007489391
      18
 i =      49, E =      -61.6099253155
  C         7.4263616258        6.7454774369        6.1615984831
  C         8.2965242494        7.7299543097        6.5706925073
  O         7.7625335149        8.4278675961        7.6047930104
  H         9.2656171921        8.0718039085        6.2075804603
  C         9.2590162015        6.1716010489        8.5316419166
  C         6.5953773114        7.8201185003        7.9496307356
  C         6.3259777334        6.8017954320        7.0571059659
  C         5.8200091062        8.4187533355        9.0600315222
  C         8.1985226526        6.2284096157        9.3625824648
  H         7.5874551173        6.0414859572        5.3439934399
  H         5.4469444356        6.1556068751        7.0774760118
  H         6.4869149843        8.8923263978        9.8012575734
  H         5.2290970681        7.6433438615        9.5764669452
  H         5.1209922095        9.1894863329        8.6877762743
  H         7.4271001150        5.4491179456        9.3727363900
  H         8.0752578010        7.0557041194       10.0742455771
  H        10.0308905816        6.9519600357        8.5378907137
  H         9.3985629111        5.3447779723        7.8252836647
      18
 i =      49, E =      -61.6047532294
  C         7.4420573575        6.7325391761        6.1916929894
  C         8.3477685726        7.6756565271        6.6444969988
  O         7.7979969041        8.4095039846        7.6466090441
  H         9.2958293677        8.0339736488        6.2448371755
  C         9.2033412661        6.2339760120        8.4480470432
  C         6.6508715446        7.7746178075        8.0137202764
  C         6.3489588058        6.7918295001        7.0807168255
  C         5.8382967653        8.4006462950        9.0809555177
  C         8.1378796219        6.2891905536        9.2876350179
  H         7.5920922330        6.0390710391        5.3627840247
  H         5.4589489996        6.1601333201        7.0889318277
  H         6.4735344356        8.9001102319        9.8323562751
  H         5.2286278866        7.6393344705        9.5967364666
  H         5.1547192704        9.1531363139        8.6489188975
  H         7.3957085933        5.4853725658        9.3356666003
  H         8.0578356126        7.0765309215       10.0479662844
  H        10.0097230013        6.9747985078        8.5091733756
  H         9.3699122192        5.3838322147        7.7786157143
      18
 i =      49, E =      -61.5989415948
  C         7.4392237053        6.7219136224        6.2070673885
  C         8.4053638924        7.6039938469        6.7337021633
  O         7.8089530705        8.4152615036        7.6564659835
  H         9.2973948984        8.0147833789        6.2552747027
  C         9.1452526839        6.3134149122        8.3412155133
  C         6.7138297633        7.7143358622        8.0867711672
  C         6.3613112832        6.7829691237        7.0826807438
  C         5.8507534036        8.3860384525        9.0910170693
  C         8.0552660171        6.3669935838        9.2059410128
  H         7.5868161593        6.0388888623        5.3679481528
  H         5.4622530132        6.1625026456        7.0865296638
  H         6.4652009041        8.9036988386        9.8469722217
  H         5.2252587292        7.6387356181        9.6076582046
  H         5.1801324946        9.1283541992        8.6198616206
  H         7.3938010397        5.5015800961        9.3274017320
  H         8.0592645983        7.0766676831       10.0436130319
  H        10.0038727135        6.9752999320        8.5092713702
  H         9.3620588081        5.4021341145        7.7723716384
      18
 i =      49, E =      -61.6109363889
  C         7.4302036864        6.7120981510        6.2143681709
  C         8.4615008800        7.5374483692        6.8201976436
  O         7.8093622531        8.4291171755        7.6545107806
  H         9.2901138009        8.0009477346        6.2631896685
  C         9.1053236398        6.3900047038        8.2356137877
  C         6.7758205561        7.6525189666        8.1595196563
  C         6.3677506868        6.7738883652        7.0743392666
  C         5.8588873092        8.3747822638        9.0948445864
  C         7.9682499952        6.4438288293        9.1428916572
  H         7.5810915812        6.0399718999        5.3656755477
  H         5.4602031092        6.1640838601        7.0796987256
  H         6.4616663611        8.9048453568        9.8518708385
  H         5.2222453764        7.6390349989        9.6135258976
  H         5.1948139999        9.1147641259        8.6057521582
  H         7.4022662025        5.5149916146        9.3247244367
  H         8.0690275866        7.0675699840       10.0445303959
  H         9.9994421481        6.9664969154        8.5181221405
  H         9.3567560701        5.4175518853        7.7789826952
      18
 i =      49, E =      -61.6406116276
  C         7.4288551461        6.6966156308        6.2265645279
  C         8.5142475395        7.4749705559        6.8965903544
  O         7.8154888166        8.4330057072        7.6596300951
  H         9.2860857558        7.9747352893        6.2800484878
  C         9.0706480049        6.4680365180        8.1370500561
  C         6.8355846905        7.5884339093        8.2327294856
  C         6.3762029236        6.7599729809        7.0755231781
  C         5.8721007544        8.3557112614        9.1022210608
  C         7.8807505906        6.5273180953        9.0840512236
  H         7.5714706559        6.0445343442        5.3595177631
  H         5.4556977007        6.1681090129        7.0694893327
  H         6.4572777485        8.9060486595        9.8591148012
  H         5.2175006035        7.6386982590        9.6240145977
  H         5.2205390578        9.0898955118        8.5839058238
  H         7.4079269202        5.5460408414        9.3098478954
  H         8.0806455114        7.0590803842       10.0344833890
  H         9.9827143954        6.9600086691        8.5259508733
  H         9.3404530072        5.4488330690        7.7813817799
      18
 i =      49, E =      -61.6535578210
  C         7.4307687106        6.6663486284        6.2516182054
  C         8.5385343753        7.4348632593        6.9352498215
  O         7.8244454834        8.4298963418        7.6656745303
  H         9.3093196716        7.9027211040        6.3047949658
  C         9.0448106060        6.5197394545        8.0889452997
  C         6.8765256351        7.5461669657        8.2851086880
  C         6.3875672889        6.7330079446        7.1017061039
  C         5.8928351714        8.3133756041        9.1193138874
  C         7.8434353473        6.5892155711        9.0530862694
  H         7.5321972420        6.0679301515        5.3408410941
  H         5.4333726245        6.1985491833        7.0494062071
  H         6.4365938973        8.9033793778        9.8785459399
  H         5.2079865480        7.6237385518        9.6425187067
  H         5.2896342760        9.0065956735        8.5070770146
  H         7.3894038694        5.6069284871        9.2723893978
  H         8.1191949676        7.0629688215       10.0123898894
  H         9.9489700579        6.9627832769        8.5403282255
  H         9.2923572838        5.4968827435        7.7554506082
      18
 i =      49, E =      -61.6536614472
  C         7.3922210201        6.7131376884        6.2225557027
  C         8.5236497157        7.4358038262        6.9213089820
  O         7.8380276495        8.4312981256        7.6800629755
  H         9.3067239514        7.8941214147        6.3002335770
  C         9.0128123348        6.4773152239        8.0433051634
  C         6.8783720564        7.5485866078        8.2872356333
  C         6.3625434827        6.7766015634        7.0881322591
  C         5.8931189542        8.3008259928        9.1290403555
  C         7.8302843475        6.5640195376        9.0271251461
  H         7.4615957085        6.1554985749        5.2835903003
  H         5.3871693648        6.2822988760        7.0282876164
  H         6.4159109301        8.8723493314        9.9153611569
  H         5.1930988356        7.6014073527        9.6195238265
  H         5.3067869687        8.9998156362        8.5091134695
  H         7.3523824001        5.5929929210        9.2419641073
  H         8.1401032336        7.0194047519        9.9851709091
  H         9.9387047510        6.8706915395        8.4962234516
  H         9.2107064100        5.4574630582        7.6725629200
