       1
 i =        1, E =       -37.3013323059
 Ni         0.0000000000        0.0000000000        0.0000000000
       1
 i =        2, E =       -37.3013904538
 Ni        -0.0000000000       -0.0000000000       -0.0000000000
       1
 i =        3, E =       -37.3013949084
 Ni        -0.0000000000        0.0000000000       -0.0000000000
       1
 i =        4, E =       -37.3013949089
 Ni        -0.0000000000        0.0000000000       -0.0000000000
       1
 i =        5, E =       -37.3014061549
 Ni        -0.0000000000        0.0000000000       -0.0000000000
